6hd6_ligand
     RDKit          3D

 47 49  0  0  0  0  0  0  0  0999 V2000
   17.7978   41.5617   51.2868 C   0  0  0  0  0  0  0  0  0  0  0  0
   24.5817   51.6292   59.8719 C   0  0  0  0  0  0  0  0  0  0  0  0
   24.8151   50.3779   58.9733 C   0  0  0  0  0  0  0  0  0  0  0  0
   20.7516   42.7055   55.3886 C   0  0  0  0  0  0  0  0  0  0  0  0
   21.1360   42.9237   54.0510 C   0  0  0  0  0  0  0  0  0  0  0  0
   20.2007   42.8856   52.9951 C   0  0  0  0  0  0  0  0  0  0  0  0
   22.7342   43.6829   56.5554 C   0  0  0  0  0  0  0  0  0  0  0  0
   22.6820   44.8624   57.5116 C   0  0  0  0  0  0  0  0  0  0  0  0
   23.1627   46.1366   57.1418 C   0  0  0  0  0  0  0  0  0  0  0  0
   23.1293   47.2188   58.0510 C   0  0  0  0  0  0  0  0  0  0  0  0
   22.6146   46.9919   59.3381 C   0  0  0  0  0  0  0  0  0  0  0  0
   22.1447   45.7338   59.7231 C   0  0  0  0  0  0  0  0  0  0  0  0
   22.1876   44.6732   58.8124 C   0  0  0  0  0  0  0  0  0  0  0  0
   23.6509   48.6120   57.6154 C   0  0  0  0  0  0  0  0  0  0  0  0
   17.7033   40.3433   51.8683 F   0  0  0  0  0  0  0  0  0  0  0  0
   18.8808   41.5479   50.4800 F   0  0  0  0  0  0  0  0  0  0  0  0
   16.7295   41.7893   50.4862 F   0  0  0  0  0  0  0  0  0  0  0  0
   17.8406   42.5949   52.2917 O   0  0  0  0  0  0  0  0  0  0  0  0
   18.8400   42.6497   53.2769 C   0  0  0  0  0  0  0  0  0  0  0  0
   18.4565   42.4589   54.6099 C   0  0  0  0  0  0  0  0  0  0  0  0
   19.3988   42.4967   55.6468 C   0  0  0  0  0  0  0  0  0  0  0  0
   21.6988   42.7940   56.4487 N   0  0  0  0  0  0  0  0  0  0  0  0
   23.7751   43.5900   55.9154 O   0  0  0  0  0  0  0  0  0  0  0  0
   23.5241   49.7463   58.5801 N   0  0  0  0  0  0  0  0  0  0  0  0
   22.5399   49.5922   59.6957 C   0  0  0  0  0  0  0  0  0  0  0  0
   22.3753   50.8975   60.5150 C   0  0  0  0  0  0  0  0  0  0  0  0
   23.6771   51.3342   60.9636 O   0  0  0  0  0  0  0  0  0  0  0  0
   24.1415   52.4171   59.2608 H   0  0  0  0  0  0  0  0  0  0  0  0
   25.5396   51.9387   60.2900 H   0  0  0  0  0  0  0  0  0  0  0  0
   25.4003   49.6506   59.5359 H   0  0  0  0  0  0  0  0  0  0  0  0
   25.3375   50.6919   58.0697 H   0  0  0  0  0  0  0  0  0  0  0  0
   22.1829   43.1271   53.8258 H   0  0  0  0  0  0  0  0  0  0  0  0
   20.5288   43.0377   51.9669 H   0  0  0  0  0  0  0  0  0  0  0  0
   23.5656   46.2887   56.1404 H   0  0  0  0  0  0  0  0  0  0  0  0
   22.5811   47.8151   60.0519 H   0  0  0  0  0  0  0  0  0  0  0  0
   21.7473   45.5798   60.7263 H   0  0  0  0  0  0  0  0  0  0  0  0
   21.8330   43.6882   59.1158 H   0  0  0  0  0  0  0  0  0  0  0  0
   23.0387   48.8934   56.7585 H   0  0  0  0  0  0  0  0  0  0  0  0
   24.7224   48.4830   57.4623 H   0  0  0  0  0  0  0  0  0  0  0  0
   17.4076   42.2781   54.8451 H   0  0  0  0  0  0  0  0  0  0  0  0
   19.0663   42.3599   56.6759 H   0  0  0  0  0  0  0  0  0  0  0  0
   21.5943   42.1230   57.2098 H   0  0  0  0  0  0  0  0  0  0  0  0
   23.0574   50.4438   58.0003 H   0  0  0  0  0  0  0  0  0  0  0  0
   22.9060   48.8146   60.3662 H   0  0  0  0  0  0  0  0  0  0  0  0
   21.5724   49.3395   59.2621 H   0  0  0  0  0  0  0  0  0  0  0  0
   21.7310   50.7146   61.3749 H   0  0  0  0  0  0  0  0  0  0  0  0
   21.9217   51.6689   59.8926 H   0  0  0  0  0  0  0  0  0  0  0  0
  1 15  1  0
  1 16  1  0
  1 17  1  0
 18  1  1  0
  3  2  1  0
  2 27  1  0
 24  3  1  0
  5  4  2  0
  4 21  1  0
  4 22  1  0
  6  5  1  0
 19  6  2  0
  7  8  1  0
 22  7  1  0
  7 23  2  0
  8  9  2  0
  8 13  1  0
  9 10  1  0
 10 11  2  0
 10 14  1  0
 12 11  1  0
 13 12  2  0
 14 24  1  0
 18 19  1  0
 19 20  1  0
 20 21  2  0
 24 25  1  0
 25 26  1  0
 26 27  1  0
  2 28  1  0
  2 29  1  0
  3 30  1  0
  3 31  1  0
  5 32  1  0
  6 33  1  0
  9 34  1  0
 11 35  1  0
 12 36  1  0
 13 37  1  0
 14 38  1  0
 14 39  1  0
 20 40  1  0
 21 41  1  0
 22 42  1  0
 24 43  1  0
 25 44  1  0
 25 45  1  0
 26 46  1  0
 26 47  1  0
M  CHG  1  24   1
M  END
