6e3n_ligand
     RDKit          3D

 29 30  0  0  0  0  0  0  0  0999 V2000
  -17.1590   17.8627  130.8080 O   0  0  0  0  0  0  0  0  0  0  0  0
  -17.6630   17.9056  131.9481 C   0  0  0  0  0  0  0  0  0  0  0  0
  -16.8947   18.0757  132.9380 O   0  0  0  0  0  0  0  0  0  0  0  0
  -19.0548   17.7633  132.1031 C   0  0  0  0  0  0  0  0  0  0  0  0
  -19.5849   17.9193  133.3990 N   0  0  0  0  0  0  0  0  0  0  0  0
  -19.9542   17.4754  131.0423 C   0  0  0  0  0  0  0  0  0  0  0  0
  -19.4705   17.3090  129.7662 O   0  0  0  0  0  0  0  0  0  0  0  0
  -21.3512   17.3468  131.2646 C   0  0  0  0  0  0  0  0  0  0  0  0
  -22.1754   17.0976  130.3733 O   0  0  0  0  0  0  0  0  0  0  0  0
  -21.8331   17.5072  132.5613 C   0  0  0  0  0  0  0  0  0  0  0  0
  -20.9657   17.7841  133.6272 C   0  0  0  0  0  0  0  0  0  0  0  0
  -21.4813   17.9284  134.9167 C   0  0  0  0  0  0  0  0  0  0  0  0
  -21.3158   19.1388  135.5965 C   0  0  0  0  0  0  0  0  0  0  0  0
  -21.8346   19.3264  136.8844 C   0  0  0  0  0  0  0  0  0  0  0  0
  -22.5114   18.2836  137.5042 C   0  0  0  0  0  0  0  0  0  0  0  0
  -22.6636   17.0765  136.8239 C   0  0  0  0  0  0  0  0  0  0  0  0
  -22.1662   16.8861  135.5379 C   0  0  0  0  0  0  0  0  0  0  0  0
  -22.3821   15.6433  134.9382 C   0  0  0  0  0  0  0  0  0  0  0  0
  -17.4111   18.0692  133.7473 H   0  0  0  0  0  0  0  0  0  0  0  0
  -20.0214   17.8443  132.0657 H   0  0  0  0  0  0  0  0  0  0  0  0
  -18.5549   17.5956  129.7324 H   0  0  0  0  0  0  0  0  0  0  0  0
  -22.9026   17.4158  132.7506 H   0  0  0  0  0  0  0  0  0  0  0  0
  -20.7726   19.9522  135.1154 H   0  0  0  0  0  0  0  0  0  0  0  0
  -21.7086   20.2812  137.3950 H   0  0  0  0  0  0  0  0  0  0  0  0
  -22.9175   18.4074  138.5081 H   0  0  0  0  0  0  0  0  0  0  0  0
  -23.1884   16.2564  137.3140 H   0  0  0  0  0  0  0  0  0  0  0  0
  -23.0098   15.7710  134.0563 H   0  0  0  0  0  0  0  0  0  0  0  0
  -21.4251   15.2116  134.6452 H   0  0  0  0  0  0  0  0  0  0  0  0
  -22.8793   14.9809  135.6468 H   0  0  0  0  0  0  0  0  0  0  0  0
  1  2  2  0
  2  3  1  0
  2  4  1  0
  4  5  2  0
  4  6  1  0
  5 11  1  0
  6  7  1  0
  6  8  1  0
  8  9  2  0
  8 10  1  0
 10 11  2  0
 11 12  1  0
 12 13  2  0
 12 17  1  0
 13 14  1  0
 14 15  2  0
 15 16  1  0
 16 17  2  0
 17 18  1  0
  3 19  1  0
  6 20  1  0
  7 21  1  0
 10 22  1  0
 13 23  1  0
 14 24  1  0
 15 25  1  0
 16 26  1  0
 18 27  1  0
 18 28  1  0
 18 29  1  0
M  END
